FoamFile
{
    version     2.0;
    format      ascii;
    class       dictionary;
    object      controlDict;
}

application     simpleFoam;

startFrom       startTime;
startTime       0;

stopAt          endTime;
endTime         2000;

deltaT          1;

writeControl    timeStep;
writeInterval   100;

purgeWrite      5;

writeFormat     binary;
writePrecision  7;
writeCompression off;

timeFormat      general;
timePrecision   6;

runTimeModifiable true;

functions
{
    #include "forceCoeffs"
}
